Version 4.1
SHEET 1 880 680
SYMBOL nor 160 144 R0
SYMATTR InstName X1
SYMBOL not 144 288 R0
SYMATTR InstName X2
