Version 4.1
SHEET 1 1972 872
WIRE 656 32 592 32
WIRE 1312 48 1248 48
WIRE 928 64 928 48
WIRE 560 96 448 96
WIRE 864 112 800 112
WIRE 1120 112 1024 112
WIRE 1216 112 1120 112
WIRE 208 128 208 112
WIRE 560 128 528 128
WIRE 1520 128 1456 128
WIRE 1216 144 1184 144
WIRE 144 176 16 176
WIRE 448 176 448 96
WIRE 448 176 304 176
WIRE 656 208 592 208
WIRE 1312 224 1248 224
WIRE 928 240 928 224
WIRE 448 272 448 176
WIRE 560 272 448 272
WIRE 864 288 800 288
WIRE 1088 288 1024 288
WIRE 1216 288 1088 288
WIRE 560 304 448 304
WIRE 1520 304 1456 304
WIRE 208 320 208 304
WIRE 1216 320 1184 320
WIRE 144 368 32 368
WIRE 448 368 448 304
WIRE 448 368 304 368
WIRE 1312 400 1248 400
WIRE 1120 464 1120 112
WIRE 1216 464 1120 464
WIRE 1520 480 1456 480
WIRE 1216 496 1024 496
WIRE 208 560 208 544
WIRE 1312 576 1248 576
WIRE 144 608 32 608
WIRE 1024 608 1024 496
WIRE 1024 608 304 608
WIRE 1088 640 1088 288
WIRE 1216 640 1088 640
WIRE 1520 656 1456 656
WIRE 1024 672 1024 608
WIRE 1216 672 1024 672
FLAG 16 176 D
IOPIN 16 176 In
FLAG 32 608 A0
IOPIN 32 608 In
FLAG 32 368 A1
IOPIN 32 368 In
FLAG 528 128 A1
IOPIN 528 128 In
FLAG 1184 144 A0
IOPIN 1184 144 In
FLAG 1520 128 Q0
IOPIN 1520 128 Out
FLAG 1184 320 A0
IOPIN 1184 320 In
FLAG 1520 304 Q2
IOPIN 1520 304 Out
FLAG 1520 480 Q1
IOPIN 1520 480 Out
FLAG 1520 656 Q3
IOPIN 1520 656 Out
FLAG 1248 48 VDD
IOPIN 1248 48 In
FLAG 1248 224 VDD
IOPIN 1248 224 In
FLAG 1248 400 VDD
IOPIN 1248 400 In
FLAG 1248 576 VDD
IOPIN 1248 576 In
FLAG 592 32 VDD
IOPIN 592 32 In
FLAG 592 208 VDD
IOPIN 592 208 In
FLAG 928 48 VDD
IOPIN 928 48 In
FLAG 928 224 VDD
IOPIN 928 224 In
FLAG 208 112 VDD
IOPIN 208 112 In
FLAG 208 304 VDD
IOPIN 208 304 In
FLAG 208 544 VDD
IOPIN 208 544 In
SYMBOL not 208 176 R0
SYMATTR InstName X1
SYMBOL not 208 608 R0
SYMATTR InstName X2
SYMBOL not 208 368 R0
SYMATTR InstName X3
SYMBOL not 928 112 R0
SYMATTR InstName X4
SYMBOL not 928 288 R0
SYMATTR InstName X5
SYMBOL nor 672 288 R0
SYMATTR InstName X6
SYMBOL nor 672 112 R0
SYMATTR InstName X7
SYMBOL nor 1328 480 R0
SYMATTR InstName X8
SYMBOL nor 1328 128 R0
SYMATTR InstName X9
SYMBOL nor 1328 656 R0
SYMATTR InstName X10
SYMBOL nor 1328 304 R0
SYMATTR InstName X11
