Version 4.1
SHEET 1 880 680
WIRE 208 64 208 48
WIRE 448 96 448 48
WIRE 560 96 560 48
WIRE 672 96 672 48
WIRE 784 96 784 48
WIRE -192 160 -208 160
WIRE 0 160 -112 160
WIRE 208 160 208 144
WIRE 448 208 448 160
WIRE 448 208 320 208
WIRE 560 208 560 176
WIRE 560 208 448 208
WIRE 672 208 672 160
WIRE 784 208 784 176
WIRE 784 208 672 208
WIRE 0 224 0 160
WIRE 96 224 0 224
WIRE 112 224 96 224
WIRE 672 256 672 208
WIRE 672 256 320 256
WIRE -192 288 -208 288
WIRE 96 288 -112 288
WIRE 672 288 320 288
WIRE 96 320 0 320
WIRE 448 336 320 336
WIRE 560 336 448 336
WIRE 672 336 672 288
WIRE 784 336 672 336
WIRE 448 368 448 336
WIRE 672 368 672 336
WIRE 560 384 560 336
WIRE 784 384 784 336
WIRE -192 432 -208 432
WIRE 0 432 0 320
WIRE 0 432 -112 432
WIRE 448 496 448 448
WIRE 560 496 560 448
WIRE 672 496 672 448
WIRE 784 496 784 448
FLAG 560 496 0
FLAG 448 496 0
FLAG 208 48 0
FLAG -208 288 0
FLAG -208 432 0
FLAG -208 160 0
FLAG 784 496 0
FLAG 672 496 0
FLAG 448 48 0
FLAG 560 48 0
FLAG 672 48 0
FLAG 784 48 0
SYMBOL voltage 208 160 R180
WINDOW 0 24 96 Left 2
WINDOW 3 24 16 Left 2
WINDOW 123 0 0 Left 0
WINDOW 39 0 0 Left 0
SYMATTR InstName V3
SYMATTR Value 1
SYMBOL res 432 352 R0
SYMATTR InstName R1
SYMATTR Value 100k
SYMBOL cap 544 384 R0
SYMATTR InstName C1
SYMATTR Value 100f
SYMBOL voltage -96 288 R90
WINDOW 0 -32 56 VBottom 2
WINDOW 3 41 110 VTop 2
WINDOW 123 0 0 Left 0
WINDOW 39 0 0 Left 0
SYMATTR InstName V1
SYMATTR Value PULSE(0 1 1n 10p 10p 20n 40n)
SYMBOL voltage -96 432 R90
WINDOW 0 -32 56 VBottom 2
WINDOW 3 42 112 VTop 2
WINDOW 123 0 0 Left 0
WINDOW 39 0 0 Left 0
SYMATTR InstName V2
SYMATTR Value PULSE(0 1 1n 10p 10p 40n 80n)
SYMBOL demux 208 272 R0
SYMATTR InstName X1
SYMBOL voltage -96 160 R90
WINDOW 0 -32 56 VBottom 2
WINDOW 3 -98 105 VTop 2
WINDOW 123 0 0 Left 0
WINDOW 39 0 0 Left 0
SYMATTR InstName V4
SYMATTR Value PULSE(0 1 1n 10p 10p 10n 20n)
SYMBOL res 656 352 R0
SYMATTR InstName R2
SYMATTR Value 100k
SYMBOL cap 768 384 R0
SYMATTR InstName C2
SYMATTR Value 100f
SYMBOL res 576 192 R180
WINDOW 0 36 76 Left 2
WINDOW 3 36 40 Left 2
SYMATTR InstName R3
SYMATTR Value 100k
SYMBOL cap 464 160 R180
WINDOW 0 24 56 Left 2
WINDOW 3 24 8 Left 2
SYMATTR InstName C3
SYMATTR Value 100f
SYMBOL res 800 192 R180
WINDOW 0 36 76 Left 2
WINDOW 3 36 40 Left 2
SYMATTR InstName R4
SYMATTR Value 100k
SYMBOL cap 688 160 R180
WINDOW 0 24 56 Left 2
WINDOW 3 24 8 Left 2
SYMATTR InstName C4
SYMATTR Value 100f
TEXT -384 -72 Left 2 !.include 90nm_bulk.txt
TEXT -384 -32 Left 2 !.tran 0 100n 0 1p
TEXT -384 -104 Left 2 !.OPTIONS ALLOW_AMBIGUOUS_MODELS
