Version 4.1
SHEET 1 880 680
WIRE 208 64 208 48
WIRE -64 160 -80 160
WIRE 64 160 16 160
WIRE 208 160 208 144
WIRE 64 224 64 160
WIRE 112 224 64 224
WIRE 464 240 352 240
WIRE 608 240 464 240
WIRE 112 256 64 256
WIRE 464 272 464 240
WIRE 608 288 608 240
WIRE -64 320 -80 320
WIRE 64 320 64 256
WIRE 64 320 16 320
WIRE 464 400 464 352
WIRE 608 400 608 352
FLAG 608 400 0
FLAG 464 400 0
FLAG 208 48 0
FLAG -80 160 0
FLAG -80 320 0
SYMBOL nor 224 240 R0
SYMATTR InstName X1
SYMBOL voltage 208 160 R180
WINDOW 0 24 96 Left 2
WINDOW 3 24 16 Left 2
WINDOW 123 0 0 Left 0
WINDOW 39 0 0 Left 0
SYMATTR InstName V3
SYMATTR Value 1
SYMBOL res 448 256 R0
SYMATTR InstName R1
SYMATTR Value 100k
SYMBOL cap 592 288 R0
SYMATTR InstName C1
SYMATTR Value 100f
SYMBOL voltage 32 160 R90
WINDOW 0 -32 56 VBottom 2
WINDOW 3 -94 108 VTop 2
WINDOW 123 0 0 Left 0
WINDOW 39 0 0 Left 0
SYMATTR InstName V1
SYMATTR Value PULSE(0 1 1n 10p 10p 20n 40n)
SYMBOL voltage 32 320 R90
WINDOW 0 -32 56 VBottom 2
WINDOW 3 42 112 VTop 2
WINDOW 123 0 0 Left 0
WINDOW 39 0 0 Left 0
SYMATTR InstName V2
SYMATTR Value PULSE(0 1 1n 10p 10p 40n 80n)
TEXT -256 -48 Left 2 !.include 90nm_bulk.txt
TEXT -256 -8 Left 2 !.tran 0 100n 0 1p
TEXT -256 -80 Left 2 !.OPTIONS ALLOW_AMBIGUOUS_MODELS
